
#======================================================================
# CRYSTAL DATA
#----------------------------------------------------------------------
data_VESTA_phase_1

_chemical_name_common                  'Cs4 Pb4 Br12                          '
_cell_length_a                         11.840399
_cell_length_b                         11.831797
_cell_length_c                         11.941730
_cell_angle_alpha                      90.000000
_cell_angle_beta                       90.000000
_cell_angle_gamma                      90.000000
_cell_volume                           1672.954994
_space_group_name_H-M_alt              'P 1'
_space_group_IT_number                 1

loop_
_space_group_symop_operation_xyz
   'x, y, z'

loop_
   _atom_site_label
   _atom_site_occupancy
   _atom_site_fract_x
   _atom_site_fract_y
   _atom_site_fract_z
   _atom_site_adp_type
   _atom_site_U_iso_or_equiv
   _atom_site_type_symbol
   Cs1        1.0     0.022292     0.463058     0.250000    Uiso  ? Cs
   Cs2        1.0     0.977708     0.536942     0.750000    Uiso  ? Cs
   Cs3        1.0     0.534985     0.477524     0.250000    Uiso  ? Cs
   Cs4        1.0     0.465015     0.522476     0.750000    Uiso  ? Cs
   Cs5        1.0     0.522328     0.963950     0.250000    Uiso  ? Cs
   Cs6        1.0     0.477672     0.036050     0.750000    Uiso  ? Cs
   Cs7        1.0     0.038132     0.977831     0.250000    Uiso  ? Cs
   Cs8        1.0     0.961868     0.022169     0.750000    Uiso  ? Cs
   Pb1        1.0     0.250292     0.749803     0.999977    Uiso  ? Pb
   Pb2        1.0     0.250292     0.749803     0.500023    Uiso  ? Pb
   Pb3        1.0     0.249531     0.249584     0.999824    Uiso  ? Pb
   Pb4        1.0     0.249531     0.249584     0.500176    Uiso  ? Pb
   Pb5        1.0     0.749708     0.250197     0.000023    Uiso  ? Pb
   Pb6        1.0     0.749708     0.250197     0.499977    Uiso  ? Pb
   Pb7        1.0     0.750469     0.750416     0.000176    Uiso  ? Pb
   Pb8        1.0     0.750469     0.750416     0.499824    Uiso  ? Pb
   Br1        1.0     0.997900     0.198858     0.036314    Uiso  ? Br
   Br2        1.0     0.997900     0.198858     0.463686    Uiso  ? Br
   Br3        1.0     0.277502     0.289629     0.250000    Uiso  ? Br
   Br4        1.0     0.221637     0.208061     0.750000    Uiso  ? Br
   Br5        1.0     0.209917     0.720709     0.250000    Uiso  ? Br
   Br6        1.0     0.291435     0.776610     0.750000    Uiso  ? Br
   Br7        1.0     0.800194     0.502108     0.035684    Uiso  ? Br
   Br8        1.0     0.800194     0.502108     0.464316    Uiso  ? Br
   Br9        1.0     0.199806     0.497892     0.964315    Uiso  ? Br
   Br10       1.0     0.199806     0.497892     0.535685    Uiso  ? Br
   Br11       1.0     0.002100     0.801142     0.963686    Uiso  ? Br
   Br12       1.0     0.002100     0.801142     0.536314    Uiso  ? Br
   Br13       1.0     0.498732     0.699933     0.035445    Uiso  ? Br
   Br14       1.0     0.498732     0.699933     0.464555    Uiso  ? Br
   Br15       1.0     0.778363     0.791939     0.250000    Uiso  ? Br
   Br16       1.0     0.722498     0.710371     0.750000    Uiso  ? Br
   Br17       1.0     0.708565     0.223390     0.250000    Uiso  ? Br
   Br18       1.0     0.790083     0.279291     0.750000    Uiso  ? Br
   Br19       1.0     0.301034     0.001265     0.036078    Uiso  ? Br
   Br20       1.0     0.301034     0.001265     0.463922    Uiso  ? Br
   Br21       1.0     0.698966     0.998735     0.963922    Uiso  ? Br
   Br22       1.0     0.698966     0.998735     0.536078    Uiso  ? Br
   Br23       1.0     0.501268     0.300067     0.964555    Uiso  ? Br
   Br24       1.0     0.501268     0.300067     0.535445    Uiso  ? Br
