
#======================================================================
# CRYSTAL DATA
#----------------------------------------------------------------------
data_VESTA_phase_1

_chemical_name_common                  'Cs1 Pb1 Br3                           '
_cell_length_a                         12.017508
_cell_length_b                         12.017508
_cell_length_c                         12.017508
_cell_angle_alpha                      90.000000
_cell_angle_beta                       90.000000
_cell_angle_gamma                      90.000000
_cell_volume                           1735.574303
_space_group_name_H-M_alt              'P 1'
_space_group_IT_number                 1

loop_
_space_group_symop_operation_xyz
   'x, y, z'

loop_
   _atom_site_label
   _atom_site_occupancy
   _atom_site_fract_x
   _atom_site_fract_y
   _atom_site_fract_z
   _atom_site_adp_type
   _atom_site_U_iso_or_equiv
   _atom_site_type_symbol
   Cs1        1.0     0.000000     0.500000     0.250000    Uiso  ? Cs
   Cs2        1.0     -0.000000     0.500000     0.750000    Uiso  ? Cs
   Cs3        1.0     0.500000     0.500000     0.250000    Uiso  ? Cs
   Cs4        1.0     0.500000     0.500000     0.750000    Uiso  ? Cs
   Cs5        1.0     0.500000     -0.000000     0.250000    Uiso  ? Cs
   Cs6        1.0     0.500000     0.000000     0.750000    Uiso  ? Cs
   Cs7        1.0     -0.000000     -0.000000     0.250000    Uiso  ? Cs
   Cs8        1.0     0.000000     0.000000     0.750000    Uiso  ? Cs
   Pb1        1.0     0.250000     0.750000     0.000000    Uiso  ? Pb
   Pb2        1.0     0.250000     0.750000     0.500000    Uiso  ? Pb
   Pb3        1.0     0.250000     0.250000     0.000000    Uiso  ? Pb
   Pb4        1.0     0.250000     0.250000     0.500000    Uiso  ? Pb
   Pb5        1.0     0.750000     0.250000     0.000000    Uiso  ? Pb
   Pb6        1.0     0.750000     0.250000     0.500000    Uiso  ? Pb
   Pb7        1.0     0.750000     0.750000     -0.000000    Uiso  ? Pb
   Pb8        1.0     0.750000     0.750000     0.500000    Uiso  ? Pb
   Br1        1.0     -0.000000     0.250000     -0.000000    Uiso  ? Br
   Br2        1.0     -0.000000     0.250000     0.500000    Uiso  ? Br
   Br3        1.0     0.250000     0.250000     0.250000    Uiso  ? Br
   Br4        1.0     0.250000     0.250000     0.750000    Uiso  ? Br
   Br5        1.0     0.250000     0.750000     0.250000    Uiso  ? Br
   Br6        1.0     0.250000     0.750000     0.750000    Uiso  ? Br
   Br7        1.0     0.750000     0.500000     -0.000000    Uiso  ? Br
   Br8        1.0     0.750000     0.500000     0.500000    Uiso  ? Br
   Br9        1.0     0.250000     0.500000     0.000000    Uiso  ? Br
   Br10       1.0     0.250000     0.500000     0.500000    Uiso  ? Br
   Br11       1.0     0.000000     0.750000     -0.000000    Uiso  ? Br
   Br12       1.0     -0.000000     0.750000     0.500000    Uiso  ? Br
   Br13       1.0     0.500000     0.750000     -0.000000    Uiso  ? Br
   Br14       1.0     0.500000     0.750000     0.500000    Uiso  ? Br
   Br15       1.0     0.750000     0.750000     0.250000    Uiso  ? Br
   Br16       1.0     0.750000     0.750000     0.750000    Uiso  ? Br
   Br17       1.0     0.750000     0.250000     0.250000    Uiso  ? Br
   Br18       1.0     0.750000     0.250000     0.750000    Uiso  ? Br
   Br19       1.0     0.250000     -0.000000     -0.000000    Uiso  ? Br
   Br20       1.0     0.250000     -0.000000     0.500000    Uiso  ? Br
   Br21       1.0     0.750000     -0.000000     -0.000000    Uiso  ? Br
   Br22       1.0     0.750000     -0.000000     0.500000    Uiso  ? Br
   Br23       1.0     0.500000     0.250000     0.000000    Uiso  ? Br
   Br24       1.0     0.500000     0.250000     0.500000    Uiso  ? Br
