## CIF file created by Jmol 16.1.37  2023-09-04 15:55
data_global
_cell_length_a             23.680798
_cell_length_b             23.663593
_cell_length_c             11.94173
_cell_angle_alpha          90.00000268115016
_cell_angle_beta           90.00000268115016
_cell_angle_gamma          90.00000268115016

_space_group_IT_number     1
_space_group_name_Hall     'P 1'
_space_group_name_H-M_alt  'P1'

loop_
_space_group_symop_id
_space_group_symop_operation_xyz
1 x,y,z

loop_
_atom_site_label
_atom_site_type_symbol
_atom_site_fract_x
_atom_site_fract_y
_atom_site_fract_z
Cs1   Cs     0.011150000000    0.231530000000    0.250000000000
Cs2   Cs     0.011150000000    0.731530000001    0.250000000000
Cs3   Cs     0.511150000000    0.231530000000    0.250000000000
Cs4   Cs     0.511150000000    0.731530000001    0.250000000000
Cs5   Cs     0.488850000000    0.268470000000    0.750000000000
Cs6   Cs     0.488850000000    0.768470000000    0.750000000000
Cs7   Cs     0.988850000000    0.268470000000    0.750000000000
Cs8   Cs     0.988850000000    0.768470000000    0.750000000000
Cs9   Cs     0.267490000000    0.238760000000    0.250000000000
Cs10  Cs     0.267490000000    0.738760000000    0.250000000000
Cs11  Cs     0.767490000000    0.238760000000    0.250000000000
Cs12  Cs     0.767490000000    0.738760000000    0.250000000000
Cs13  Cs     0.232510000000    0.261240000000    0.750000000000
Cs14  Cs     0.232510000000    0.761240000001    0.750000000000
Cs15  Cs     0.732510000000    0.261240000000    0.750000000000
Cs16  Cs     0.732510000000    0.761240000001    0.750000000000
Cs17  Cs     0.261160000000    0.481980000000    0.250000000000
Cs18  Cs     0.261160000000    0.981980000000    0.250000000000
Cs19  Cs     0.761160000000    0.481980000000    0.250000000000
Cs20  Cs     0.761160000000    0.981980000000    0.250000000000
Cs21  Cs     0.238840000000    0.018030000000    0.750000000000
Cs22  Cs     0.238840000000    0.518020000001    0.750000000000
Cs23  Cs     0.738840000001    0.018030000000    0.750000000000
Cs24  Cs     0.738840000001    0.518020000001    0.750000000000
Cs25  Cs     0.019070000000    0.488920000000    0.250000000000
Cs26  Cs     0.019070000000    0.988920000001    0.250000000000
Cs27  Cs     0.519070000001    0.488920000000    0.250000000000
Cs28  Cs     0.519070000001    0.988920000001    0.250000000000
Cs29  Cs     0.480930000000    0.011090000000    0.750000000000
Cs30  Cs     0.480930000000    0.511090000001    0.750000000000
Cs31  Cs     0.980930000000    0.011090000000    0.750000000000
Cs32  Cs     0.980930000000    0.511090000001    0.750000000000
Pb1   Pb     0.125150000000    0.374900000000    0.000000000000
Pb2   Pb     0.125150000000    0.874900000000    0.000000000000
Pb3   Pb     0.625150000000    0.374900000000    0.000000000000
Pb4   Pb     0.625150000000    0.874900000000    0.000000000000
Pb5   Pb     0.125150000000    0.374900000000    0.500000000000
Pb6   Pb     0.125150000000    0.874900000000    0.500000000000
Pb7   Pb     0.625150000000    0.374900000000    0.500000000000
Pb8   Pb     0.625150000000    0.874900000000    0.500000000000
Pb9   Pb     0.124770000001    0.124790000000    0.999820000000
Pb10  Pb     0.124770000001    0.624790000000    0.999820000000
Pb11  Pb     0.624770000000    0.124790000000    0.999820000000
Pb12  Pb     0.624770000000    0.624790000000    0.999820000000
Pb13  Pb     0.124770000001    0.124790000000    0.500180000000
Pb14  Pb     0.124770000001    0.624790000000    0.500180000000
Pb15  Pb     0.624770000000    0.124790000000    0.500180000000
Pb16  Pb     0.624770000000    0.624790000000    0.500180000000
Pb17  Pb     0.374850000000    0.125100000000    0.000000000000
Pb18  Pb     0.374850000000    0.625100000000    0.000000000000
Pb19  Pb     0.874850000000    0.125100000000    0.000000000000
Pb20  Pb     0.874850000000    0.625100000000    0.000000000000
Pb21  Pb     0.374850000000    0.125100000000    0.500000000000
Pb22  Pb     0.374850000000    0.625100000000    0.500000000000
Pb23  Pb     0.874850000000    0.125100000000    0.500000000000
Pb24  Pb     0.874850000000    0.625100000000    0.500000000000
Pb25  Pb     0.375240000000    0.375210000000    0.000180000000
Pb26  Pb     0.375240000000    0.875210000001    0.000180000000
Pb27  Pb     0.875240000000    0.375210000000    0.000180000000
Pb28  Pb     0.875240000000    0.875210000001    0.000180000000
Pb29  Pb     0.375240000000    0.375210000000    0.499820000000
Pb30  Pb     0.375240000000    0.875210000001    0.499820000000
Pb31  Pb     0.875240000000    0.375210000000    0.499820000000
Pb32  Pb     0.875240000000    0.875210000001    0.499820000000
Br1   Br     0.498950000000    0.099430000001    0.036310000000
Br2   Br     0.498950000000    0.599430000001    0.036310000000
Br3   Br     0.998950000000    0.099430000001    0.036310000000
Br4   Br     0.998950000000    0.599430000001    0.036310000000
Br5   Br     0.498950000000    0.099430000001    0.463690000000
Br6   Br     0.498950000000    0.599430000001    0.463690000000
Br7   Br     0.998950000000    0.099430000001    0.463690000000
Br8   Br     0.998950000000    0.599430000001    0.463690000000
Br9   Br     0.138750000000    0.144820000000    0.250000000000
Br10  Br     0.138750000000    0.644810000000    0.250000000000
Br11  Br     0.638750000000    0.144820000000    0.250000000000
Br12  Br     0.638750000000    0.644810000000    0.250000000000
Br13  Br     0.110820000000    0.104030000000    0.750000000000
Br14  Br     0.110820000000    0.604030000000    0.750000000000
Br15  Br     0.610820000001    0.104030000000    0.750000000000
Br16  Br     0.610820000001    0.604030000000    0.750000000000
Br17  Br     0.104960000000    0.360350000000    0.250000000000
Br18  Br     0.104960000000    0.860350000000    0.250000000000
Br19  Br     0.604960000000    0.360350000000    0.250000000000
Br20  Br     0.604960000000    0.860350000000    0.250000000000
Br21  Br     0.145720000000    0.388300000000    0.750000000000
Br22  Br     0.145720000000    0.888310000001    0.750000000000
Br23  Br     0.645720000000    0.388300000000    0.750000000000
Br24  Br     0.645720000000    0.888310000001    0.750000000000
Br25  Br     0.400100000000    0.251050000000    0.035690000000
Br26  Br     0.400100000000    0.751050000000    0.035690000000
Br27  Br     0.900100000001    0.251050000000    0.035690000000
Br28  Br     0.900100000001    0.751050000000    0.035690000000
Br29  Br     0.400100000000    0.251050000000    0.464320000000
Br30  Br     0.400100000000    0.751050000000    0.464320000000
Br31  Br     0.900100000001    0.251050000000    0.464320000000
Br32  Br     0.900100000001    0.751050000000    0.464320000000
Br33  Br     0.099900000000    0.248950000000    0.964310000000
Br34  Br     0.099900000000    0.748950000000    0.964310000000
Br35  Br     0.599900000000    0.248950000000    0.964310000000
Br36  Br     0.599900000000    0.748950000000    0.964310000000
Br37  Br     0.099900000000    0.248950000000    0.535690000000
Br38  Br     0.099900000000    0.748950000000    0.535690000000
Br39  Br     0.599900000000    0.248950000000    0.535690000000
Br40  Br     0.599900000000    0.748950000000    0.535690000000
Br41  Br     0.001050000000    0.400570000000    0.963690000000
Br42  Br     0.001050000000    0.900570000000    0.963690000000
Br43  Br     0.501050000000    0.400570000000    0.963690000000
Br44  Br     0.501050000000    0.900570000000    0.963690000000
Br45  Br     0.001050000000    0.400570000000    0.536310000000
Br46  Br     0.001050000000    0.900570000000    0.536310000000
Br47  Br     0.501050000000    0.400570000000    0.536310000000
Br48  Br     0.501050000000    0.900570000000    0.536310000000
Br49  Br     0.249370000000    0.349970000000    0.035450000000
Br50  Br     0.249370000000    0.849970000000    0.035450000000
Br51  Br     0.749370000000    0.349970000000    0.035450000000
Br52  Br     0.749370000000    0.849970000000    0.035450000000
Br53  Br     0.249370000000    0.349970000000    0.464560000000
Br54  Br     0.249370000000    0.849970000000    0.464560000000
Br55  Br     0.749370000000    0.349970000000    0.464560000000
Br56  Br     0.749370000000    0.849970000000    0.464560000000
Br57  Br     0.389180000000    0.395970000000    0.250000000000
Br58  Br     0.389180000000    0.895970000001    0.250000000000
Br59  Br     0.889180000000    0.395970000000    0.250000000000
Br60  Br     0.889180000000    0.895970000001    0.250000000000
Br61  Br     0.361250000000    0.355190000000    0.750000000000
Br62  Br     0.361250000000    0.855190000000    0.750000000000
Br63  Br     0.861250000000    0.355190000000    0.750000000000
Br64  Br     0.861250000000    0.855190000000    0.750000000000
Br65  Br     0.354280000000    0.111690000000    0.250000000000
Br66  Br     0.354280000000    0.611700000001    0.250000000000
Br67  Br     0.854280000000    0.111690000000    0.250000000000
Br68  Br     0.854280000000    0.611700000001    0.250000000000
Br69  Br     0.395040000000    0.139650000000    0.750000000000
Br70  Br     0.395040000000    0.639650000000    0.750000000000
Br71  Br     0.895040000000    0.139650000000    0.750000000000
Br72  Br     0.895040000000    0.639650000000    0.750000000000
Br73  Br     0.150520000000    0.000630000000    0.036080000000
Br74  Br     0.150520000000    0.500630000000    0.036080000000
Br75  Br     0.650520000000    0.000630000000    0.036080000000
Br76  Br     0.650520000000    0.500630000000    0.036080000000
Br77  Br     0.150520000000    0.000630000000    0.463920000000
Br78  Br     0.150520000000    0.500630000000    0.463920000000
Br79  Br     0.650520000000    0.000630000000    0.463920000000
Br80  Br     0.650520000000    0.500630000000    0.463920000000
Br81  Br     0.349480000000    0.499370000000    0.963920000000
Br82  Br     0.349480000000    0.999370000000    0.963920000000
Br83  Br     0.849480000000    0.499370000000    0.963920000000
Br84  Br     0.849480000000    0.999370000000    0.963920000000
Br85  Br     0.349480000000    0.499370000000    0.536080000000
Br86  Br     0.349480000000    0.999370000000    0.536080000000
Br87  Br     0.849480000000    0.499370000000    0.536080000000
Br88  Br     0.849480000000    0.999370000000    0.536080000000
Br89  Br     0.250630000000    0.150030000000    0.964560000000
Br90  Br     0.250630000000    0.650030000000    0.964560000000
Br91  Br     0.750630000000    0.150030000000    0.964560000000
Br92  Br     0.750630000000    0.650030000000    0.964560000000
Br93  Br     0.250630000000    0.150030000000    0.535440000000
Br94  Br     0.250630000000    0.650030000000    0.535440000000
Br95  Br     0.750630000000    0.150030000000    0.535440000000
Br96  Br     0.750630000000    0.650030000000    0.535440000000

loop_
_atom_type_symbol
Cs
Pb
Br



loop_
_jmol_atom_index
_jmol_atom_name
_jmol_atom_site_label
  0 Cs    Cs1
  1 Cs    Cs2
  2 Cs    Cs3
  3 Cs    Cs4
  4 Cs    Cs5
  5 Cs    Cs6
  6 Cs    Cs7
  7 Cs    Cs8
  8 Cs    Cs9
  9 Cs   Cs10
 10 Cs   Cs11
 11 Cs   Cs12
 12 Cs   Cs13
 13 Cs   Cs14
 14 Cs   Cs15
 15 Cs   Cs16
 16 Cs   Cs17
 17 Cs   Cs18
 18 Cs   Cs19
 19 Cs   Cs20
 20 Cs   Cs21
 21 Cs   Cs22
 22 Cs   Cs23
 23 Cs   Cs24
 24 Cs   Cs25
 25 Cs   Cs26
 26 Cs   Cs27
 27 Cs   Cs28
 28 Cs   Cs29
 29 Cs   Cs30
 30 Cs   Cs31
 31 Cs   Cs32
 32 Pb    Pb1
 33 Pb    Pb2
 34 Pb    Pb3
 35 Pb    Pb4
 36 Pb    Pb5
 37 Pb    Pb6
 38 Pb    Pb7
 39 Pb    Pb8
 40 Pb    Pb9
 41 Pb   Pb10
 42 Pb   Pb11
 43 Pb   Pb12
 44 Pb   Pb13
 45 Pb   Pb14
 46 Pb   Pb15
 47 Pb   Pb16
 48 Pb   Pb17
 49 Pb   Pb18
 50 Pb   Pb19
 51 Pb   Pb20
 52 Pb   Pb21
 53 Pb   Pb22
 54 Pb   Pb23
 55 Pb   Pb24
 56 Pb   Pb25
 57 Pb   Pb26
 58 Pb   Pb27
 59 Pb   Pb28
 60 Pb   Pb29
 61 Pb   Pb30
 62 Pb   Pb31
 63 Pb   Pb32
 64 Br    Br1
 65 Br    Br2
 66 Br    Br3
 67 Br    Br4
 68 Br    Br5
 69 Br    Br6
 70 Br    Br7
 71 Br    Br8
 72 Br    Br9
 73 Br   Br10
 74 Br   Br11
 75 Br   Br12
 76 Br   Br13
 77 Br   Br14
 78 Br   Br15
 79 Br   Br16
 80 Br   Br17
 81 Br   Br18
 82 Br   Br19
 83 Br   Br20
 84 Br   Br21
 85 Br   Br22
 86 Br   Br23
 87 Br   Br24
 88 Br   Br25
 89 Br   Br26
 90 Br   Br27
 91 Br   Br28
 92 Br   Br29
 93 Br   Br30
 94 Br   Br31
 95 Br   Br32
 96 Br   Br33
 97 Br   Br34
 98 Br   Br35
 99 Br   Br36
100 Br   Br37
101 Br   Br38
102 Br   Br39
103 Br   Br40
104 Br   Br41
105 Br   Br42
106 Br   Br43
107 Br   Br44
108 Br   Br45
109 Br   Br46
110 Br   Br47
111 Br   Br48
112 Br   Br49
113 Br   Br50
114 Br   Br51
115 Br   Br52
116 Br   Br53
117 Br   Br54
118 Br   Br55
119 Br   Br56
120 Br   Br57
121 Br   Br58
122 Br   Br59
123 Br   Br60
124 Br   Br61
125 Br   Br62
126 Br   Br63
127 Br   Br64
128 Br   Br65
129 Br   Br66
130 Br   Br67
131 Br   Br68
132 Br   Br69
133 Br   Br70
134 Br   Br71
135 Br   Br72
136 Br   Br73
137 Br   Br74
138 Br   Br75
139 Br   Br76
140 Br   Br77
141 Br   Br78
142 Br   Br79
143 Br   Br80
144 Br   Br81
145 Br   Br82
146 Br   Br83
147 Br   Br84
148 Br   Br85
149 Br   Br86
150 Br   Br87
151 Br   Br88
152 Br   Br89
153 Br   Br90
154 Br   Br91
155 Br   Br92
156 Br   Br93
157 Br   Br94
158 Br   Br95
159 Br   Br96

# 160 atoms

