## CIF file created by Jmol 16.1.37  2023-09-04 15:55
data_global
_cell_length_a             11.7966365814
_cell_length_b             11.791475296
_cell_length_c             12.0511188507
_cell_angle_alpha          90.00000268115016
_cell_angle_beta           90.00000268115016
_cell_angle_gamma          90.00000268115016

_space_group_IT_number     1
_space_group_name_Hall     'P 1'
_space_group_name_H-M_alt  'P1'

loop_
_space_group_symop_id
_space_group_symop_operation_xyz
1 x,y,z

loop_
_atom_site_label
_atom_site_type_symbol
_atom_site_fract_x
_atom_site_fract_y
_atom_site_fract_z
Cs1   Cs     0.013375392000    0.477834642000    0.250000000000
Cs2   Cs     0.986624599000    0.522165358000    0.750000000000
Cs3   Cs     0.520990908000    0.486514449000    0.250000000000
Cs4   Cs     0.479009062000    0.513485551000    0.750000000000
Cs5   Cs     0.513396800000    0.978369713000    0.250000000000
Cs6   Cs     0.486603200000    0.021630285000    0.750000000000
Cs7   Cs     0.022879308000    0.986698449000    0.250000000000
Cs8   Cs     0.977120697000    0.013301517000    0.750000000000
Pb1   Pb     0.250175059000    0.750000000000    0.000000000000
Pb2   Pb     0.250175059000    0.750000000000    0.500000000000
Pb3   Pb     0.249718428000    0.249750182000    1.000000000000
Pb4   Pb     0.249718428000    0.249750182000    0.500000000000
Pb5   Pb     0.749824882000    0.250000000000    0.000000000000
Pb6   Pb     0.749824882000    0.250000000000    0.500000000000
Pb7   Pb     0.750281572000    0.750249803000    0.000000000000
Pb8   Pb     0.750281572000    0.750249803000    0.500000000000
Br1   Br     0.998740256000    0.193084553000    0.021788675000
Br2   Br     0.998740256000    0.245545149000    0.478211343000
Br3   Br     0.266500920000    0.273777455000    0.250000000000
Br4   Br     0.232981935000    0.224836305000    0.750000000000
Br5   Br     0.225950137000    0.732425272000    0.250000000000
Br6   Br     0.274861068000    0.765965760000    0.750000000000
Br7   Br     0.806346834000    0.501264691000    0.021410700000
Br8   Br     0.753886223000    0.501264632000    0.478589296000
Br9   Br     0.193653181000    0.498735368000    0.978589296000
Br10  Br     0.246113762000    0.498735368000    0.521410704000
Br11  Br     0.001259742000    0.806915462000    0.978211284000
Br12  Br     0.001259742000    0.754454851000    0.521788716000
Br13  Br     0.499238908000    0.693729758000    0.021266749000
Br14  Br     0.499238908000    0.746190369000    0.478733271000
Br15  Br     0.767018080000    0.775163710000    0.250000000000
Br16  Br     0.733499050000    0.726222515001    0.750000000000
Br17  Br     0.725138962000    0.234034255000    0.250000000000
Br18  Br     0.774049878000    0.267574728000    0.750000000000
Br19  Br     0.306850851000    0.000758831000    0.021646798000
Br20  Br     0.254390299000    0.000758831000    0.478353202000
Br21  Br     0.693149149000    0.999241173000    0.978353202000
Br22  Br     0.745609701001    0.999241173000    0.521646798000
Br23  Br     0.500761092000    0.306270212000    0.978733242000
Br24  Br     0.500761092000    0.253809661000    0.521266758000

loop_
_atom_type_symbol
Cs
Pb
Br



loop_
_jmol_atom_index
_jmol_atom_name
_jmol_atom_site_label
  0 Cs    Cs1
  1 Cs    Cs2
  2 Cs    Cs3
  3 Cs    Cs4
  4 Cs    Cs5
  5 Cs    Cs6
  6 Cs    Cs7
  7 Cs    Cs8
  8 Pb    Pb1
  9 Pb    Pb2
 10 Pb    Pb3
 11 Pb    Pb4
 12 Pb    Pb5
 13 Pb    Pb6
 14 Pb    Pb7
 15 Pb    Pb8
 16 Br    Br1
 17 Br    Br2
 18 Br    Br3
 19 Br    Br4
 20 Br    Br5
 21 Br    Br6
 22 Br    Br7
 23 Br    Br8
 24 Br    Br9
 25 Br   Br10
 26 Br   Br11
 27 Br   Br12
 28 Br   Br13
 29 Br   Br14
 30 Br   Br15
 31 Br   Br16
 32 Br   Br17
 33 Br   Br18
 34 Br   Br19
 35 Br   Br20
 36 Br   Br21
 37 Br   Br22
 38 Br   Br23
 39 Br   Br24

# 40 atoms

