## CIF file created by Jmol 16.1.37  2023-09-04 15:55
data_global
_cell_length_a             11.7638149261
_cell_length_b             11.7612342834
_cell_length_c             12.1331615448
_cell_angle_alpha          90.00000268115016
_cell_angle_beta           90.00000268115016
_cell_angle_gamma          90.00000268115016

_space_group_IT_number     1
_space_group_name_Hall     'P 1'
_space_group_name_H-M_alt  'P1'

loop_
_space_group_symop_id
_space_group_symop_operation_xyz
1 x,y,z

loop_
_atom_site_label
_atom_site_type_symbol
_atom_site_fract_x
_atom_site_fract_y
_atom_site_fract_z
Cs1   Cs     0.006687696000    0.488917321000    0.250000000000
Cs2   Cs     0.993312299000    0.511082649000    0.750000000000
Cs3   Cs     0.510495484000    0.493257225000    0.250000000000
Cs4   Cs     0.489504546000    0.506742775000    0.750000000000
Cs5   Cs     0.506698370000    0.989184856000    0.250000000000
Cs6   Cs     0.493301600000    0.010815143000    0.750000000000
Cs7   Cs     0.011439654000    0.993349254000    0.250000000000
Cs8   Cs     0.988560319000    0.006650758000    0.750000000000
Pb1   Pb     0.250000000000    0.750000000000    0.000000000000
Pb2   Pb     0.250000000000    0.750000000000    0.500000000000
Pb3   Pb     0.250000000000    0.250000000000    0.000000000000
Pb4   Pb     0.250000000000    0.250000000000    0.500000000000
Pb5   Pb     0.750000000000    0.250000000000    0.000000000000
Pb6   Pb     0.750000000000    0.250000000000    0.500000000000
Pb7   Pb     0.750000000000    0.750000000000    0.000000000000
Pb8   Pb     0.750000000000    0.750000000000    0.500000000000
Br1   Br     0.999370158000    0.188754410000    0.010894337000
Br2   Br     0.999370158000    0.280560434000    0.489105672000
Br3   Br     0.258250475000    0.261888713000    0.250000000000
Br4   Br     0.241490960000    0.237418145000    0.750000000000
Br5   Br     0.237975061000    0.741212606001    0.250000000000
Br6   Br     0.262430519000    0.757982910000    0.750000000000
Br7   Br     0.810961306000    0.500632346000    0.010705350000
Br8   Br     0.719155252000    0.500632286000    0.489294648000
Br9   Br     0.189038724000    0.499367684000    0.989294648000
Br10  Br     0.280844748000    0.499367654000    0.510705352000
Br11  Br     0.000629871000    0.811245561000    0.989105642000
Br12  Br     0.000629871000    0.719439566000    0.510894358001
Br13  Br     0.499619424000    0.689076960000    0.010633375000
Br14  Br     0.499619454000    0.780883074000    0.489366621000
Br15  Br     0.758509040000    0.762581825000    0.250000000000
Br16  Br     0.741749525000    0.738111258000    0.750000000000
Br17  Br     0.737569451000    0.242017135000    0.250000000000
Br18  Br     0.762024939000    0.258787364000    0.750000000000
Br19  Br     0.311213285000    0.000379415000    0.010823398000
Br20  Br     0.219407290000    0.000379415000    0.489176601000
Br21  Br     0.688786745000    0.999620557000    0.989176571000
Br22  Br     0.780592740000    0.999620557000    0.510823429000
Br23  Br     0.500380516000    0.310922951000    0.989366591001
Br24  Br     0.500380516000    0.219116971000    0.510633409000

loop_
_atom_type_symbol
Cs
Pb
Br



loop_
_jmol_atom_index
_jmol_atom_name
_jmol_atom_site_label
  0 Cs    Cs1
  1 Cs    Cs2
  2 Cs    Cs3
  3 Cs    Cs4
  4 Cs    Cs5
  5 Cs    Cs6
  6 Cs    Cs7
  7 Cs    Cs8
  8 Pb    Pb1
  9 Pb    Pb2
 10 Pb    Pb3
 11 Pb    Pb4
 12 Pb    Pb5
 13 Pb    Pb6
 14 Pb    Pb7
 15 Pb    Pb8
 16 Br    Br1
 17 Br    Br2
 18 Br    Br3
 19 Br    Br4
 20 Br    Br5
 21 Br    Br6
 22 Br    Br7
 23 Br    Br8
 24 Br    Br9
 25 Br   Br10
 26 Br   Br11
 27 Br   Br12
 28 Br   Br13
 29 Br   Br14
 30 Br   Br15
 31 Br   Br16
 32 Br   Br17
 33 Br   Br18
 34 Br   Br19
 35 Br   Br20
 36 Br   Br21
 37 Br   Br22
 38 Br   Br23
 39 Br   Br24

# 40 atoms

